Version 4
SHEET 1 2216 692
WIRE 944 -1296 880 -1296
WIRE 1088 -1296 1008 -1296
WIRE 880 -1152 880 -1296
WIRE 944 -1152 880 -1152
WIRE 1088 -1152 1088 -1296
WIRE 1088 -1152 1024 -1152
WIRE 688 -1040 592 -1040
WIRE 880 -1040 880 -1152
WIRE 880 -1040 768 -1040
WIRE 944 -1040 880 -1040
WIRE 1088 -1024 1088 -1152
WIRE 1088 -1024 1008 -1024
WIRE 1776 -240 1648 -240
WIRE 1984 -240 1904 -240
WIRE 2144 -240 2048 -240
WIRE 2144 -224 2144 -240
WIRE 1120 -160 1120 -176
WIRE 2144 -112 2144 -144
WIRE 2144 -112 1904 -112
WIRE 1120 -80 1120 -160
WIRE 1120 -80 944 -80
WIRE 1120 -48 1120 -80
WIRE 720 0 720 -80
WIRE 720 0 544 0
WIRE 944 0 944 -80
WIRE 720 32 720 0
WIRE 544 80 544 0
WIRE 1120 80 1120 32
WIRE 1360 80 1120 80
WIRE 1120 112 1120 80
WIRE 1920 112 1920 64
WIRE 720 160 720 112
WIRE 944 160 944 80
WIRE 944 160 720 160
WIRE 1056 160 944 160
WIRE -304 192 -304 160
WIRE 720 192 720 160
WIRE 944 224 944 160
WIRE 416 240 384 240
WIRE 544 240 544 160
WIRE 544 240 496 240
WIRE 656 240 544 240
WIRE 1120 256 1120 208
WIRE 1920 272 1920 192
WIRE -304 288 -304 272
WIRE -304 288 -432 288
WIRE -432 304 -432 288
WIRE 544 304 544 240
WIRE 720 336 720 288
WIRE 160 400 160 368
WIRE 1920 400 1920 336
WIRE 720 464 720 416
WIRE 848 464 720 464
WIRE 1120 464 1120 336
WIRE 1248 464 1120 464
WIRE 848 496 848 464
WIRE 1248 496 1248 464
WIRE 720 512 720 464
WIRE 1120 512 1120 464
WIRE 160 528 160 480
WIRE 544 640 544 384
WIRE 720 640 720 592
WIRE 720 640 544 640
WIRE 848 640 848 560
WIRE 848 640 720 640
WIRE 944 640 944 304
WIRE 944 640 848 640
WIRE 1120 640 1120 592
WIRE 1120 640 944 640
WIRE 1248 640 1248 560
WIRE 1248 640 1120 640
WIRE 720 672 720 640
WIRE 0 0 0 0
FLAG -432 304 0
FLAG -304 160 Vdd
FLAG 720 -80 Vdd
FLAG 1120 -160 Vdd
FLAG 720 672 0
FLAG 160 528 0
FLAG 160 368 Vin
FLAG 384 240 Vin
FLAG 1360 80 SSAC
FLAG 1648 -240 LPF
SYMBOL voltage 160 384 R0
WINDOW 0 -125 -5 Left 2
WINDOW 3 -163 143 Invisible 2
WINDOW 123 0 0 Left 2
WINDOW 39 0 0 Left 2
SYMATTR InstName Varduino
SYMATTR Value PWL file="S:\My Documents\DavidHouston\FPSi Senior Project\programming\sawtooth_dc.txt"
SYMBOL voltage -304 176 R0
WINDOW 123 0 0 Left 2
WINDOW 39 0 0 Left 2
SYMATTR InstName V3
SYMATTR Value 34
SYMBOL res 512 224 R90
WINDOW 0 0 56 VBottom 2
WINDOW 3 32 56 VTop 2
SYMATTR InstName Rs
SYMATTR Value 2k
SYMBOL npn 656 192 R0
SYMATTR InstName Q1
SYMATTR Value 2N2222
SYMBOL res 528 64 R0
SYMATTR InstName R1
SYMATTR Value 10k
SYMBOL res 528 288 R0
SYMATTR InstName R2
SYMATTR Value 1k
SYMBOL res 704 320 R0
SYMATTR InstName Re1
SYMATTR Value 50
SYMBOL res 704 496 R0
SYMATTR InstName R4
SYMATTR Value 500
SYMBOL res 704 16 R0
SYMATTR InstName R5
SYMATTR Value 6k
SYMBOL cap 832 496 R0
SYMATTR InstName C1
SYMATTR Value 10p
SYMBOL npn 1056 112 R0
SYMATTR InstName Q2
SYMATTR Value 2N2222
SYMBOL res 928 -16 R0
SYMATTR InstName R6
SYMATTR Value 10k
SYMBOL res 928 208 R0
SYMATTR InstName R7
SYMATTR Value 1k
SYMBOL res 1104 240 R0
SYMATTR InstName Re2
SYMATTR Value 50
SYMBOL res 1104 496 R0
SYMATTR InstName R8
SYMATTR Value 560
SYMBOL res 1104 -64 R0
SYMATTR InstName R9
SYMATTR Value 1k
SYMBOL cap 1232 496 R0
SYMATTR InstName C2
SYMATTR Value 10p
SYMBOL res 1904 96 R0
SYMATTR InstName R3
SYMATTR Value 370
SYMBOL cap 1904 272 R0
SYMATTR InstName C3
SYMATTR Value 15.51n
SYMBOL cap 2048 -256 R90
WINDOW 0 0 32 VBottom 2
WINDOW 3 32 32 VTop 2
SYMATTR InstName C5
SYMBOL res 2128 -240 R0
SYMATTR InstName R11
SYMBOL Opamps\\LT1208 976 -1088 R0
SYMATTR InstName U1
SYMBOL res 784 -1056 R90
WINDOW 0 0 56 VBottom 2
WINDOW 3 32 56 VTop 2
SYMATTR InstName R10
SYMBOL res 1040 -1168 R90
WINDOW 0 0 56 VBottom 2
WINDOW 3 32 56 VTop 2
SYMATTR InstName R12
SYMBOL cap 1008 -1312 R90
WINDOW 0 0 32 VBottom 2
WINDOW 3 32 32 VTop 2
SYMATTR InstName C4
TEXT -456 528 Left 2 !.tran 0 0.08 0.01 0.001
TEXT 1176 -8 Left 2 ;Fine Tune Varistor
TEXT 736 128 Left 2 ;Large Step Varistor
TEXT 736 -272 Left 2 ;2-Stage BJT Open-Loop Amplifier
